Version 4
SHEET 1 6244 3204
WIRE 6240 -176 1424 -176
WIRE 5856 80 1664 80
WIRE 4000 256 3968 256
WIRE 5120 272 4688 272
WIRE 5360 272 5216 272
WIRE 5856 272 5856 80
WIRE 5856 272 5360 272
WIRE 4112 288 4112 256
WIRE 4000 304 4000 256
WIRE 4064 304 4000 304
WIRE 4688 304 4688 272
WIRE 5120 304 5072 304
WIRE 5296 304 5216 304
WIRE 4336 320 4144 320
WIRE 4640 320 4336 320
WIRE 4064 336 3856 336
WIRE 5072 352 5072 304
WIRE 5168 352 5072 352
WIRE 5296 352 5296 304
WIRE 5296 352 5168 352
WIRE 4112 368 4112 352
WIRE 5168 368 5168 352
WIRE 4640 400 4640 368
WIRE 4688 400 4688 384
WIRE 4688 400 4640 400
WIRE 3856 416 3856 336
WIRE 4688 432 4688 400
WIRE 1200 480 1200 448
WIRE 3712 496 3648 496
WIRE 3856 496 3856 416
WIRE 3856 496 3792 496
WIRE 4064 496 3856 496
WIRE 4208 496 4144 496
WIRE 4336 496 4336 320
WIRE 4336 496 4272 496
WIRE 1280 560 1200 560
WIRE 1280 592 1280 560
WIRE 1200 624 1200 560
WIRE 1200 736 1200 704
WIRE 2080 976 1920 976
WIRE 2288 976 2160 976
WIRE 2464 976 2288 976
WIRE 2640 976 2544 976
WIRE 2784 976 2640 976
WIRE 1920 992 1920 976
WIRE 1872 1008 1776 1008
WIRE 2640 1008 2640 976
WIRE 2896 1008 2896 976
WIRE 2784 1024 2784 976
WIRE 2848 1024 2784 1024
WIRE 3056 1040 2928 1040
WIRE 3248 1040 3056 1040
WIRE 3456 1040 3248 1040
WIRE 3584 1040 3536 1040
WIRE 3648 1040 3648 496
WIRE 3648 1040 3584 1040
WIRE 2848 1056 2784 1056
WIRE 1872 1088 1872 1056
WIRE 1920 1088 1920 1072
WIRE 1920 1088 1872 1088
WIRE 2896 1088 2896 1072
WIRE 1920 1104 1920 1088
WIRE 1664 1136 1664 80
WIRE 1776 1136 1776 1008
WIRE 1776 1136 1664 1136
WIRE 2080 1200 1920 1200
WIRE 2288 1200 2160 1200
WIRE 2464 1200 2288 1200
WIRE 2784 1200 2784 1056
WIRE 2784 1200 2544 1200
WIRE 2832 1200 2784 1200
WIRE 3056 1200 3056 1040
WIRE 3056 1200 2912 1200
WIRE 1920 1232 1920 1200
WIRE 1776 1248 1776 1136
WIRE 1872 1248 1776 1248
WIRE 1872 1328 1872 1296
WIRE 1920 1328 1920 1312
WIRE 1920 1328 1872 1328
WIRE 2784 1328 2784 1200
WIRE 2848 1328 2784 1328
WIRE 3056 1328 3056 1200
WIRE 3056 1328 2912 1328
WIRE 1920 1344 1920 1328
WIRE 1424 1504 1424 -176
WIRE 6240 1504 6240 -176
WIRE 6240 1504 1424 1504
WIRE 4496 1808 2928 1808
WIRE 3216 2080 3136 2080
WIRE 3424 2080 3296 2080
WIRE 3600 2080 3424 2080
WIRE 3728 2080 3680 2080
WIRE 3920 2080 3728 2080
WIRE 3728 2112 3728 2080
WIRE 4032 2112 4032 2080
WIRE 3920 2128 3920 2080
WIRE 3984 2128 3920 2128
WIRE 4192 2144 4064 2144
WIRE 3888 2160 3840 2160
WIRE 3984 2160 3888 2160
WIRE 3840 2192 3840 2160
WIRE 4032 2192 4032 2176
WIRE 3136 2304 3136 2080
WIRE 3216 2304 3136 2304
WIRE 3424 2304 3296 2304
WIRE 3600 2304 3424 2304
WIRE 3776 2304 3680 2304
WIRE 3840 2304 3840 2272
WIRE 3840 2304 3776 2304
WIRE 3920 2304 3840 2304
WIRE 3968 2304 3920 2304
WIRE 4192 2304 4192 2144
WIRE 4192 2304 4048 2304
WIRE 3136 2368 3136 2304
WIRE 3920 2432 3920 2304
WIRE 3984 2432 3920 2432
WIRE 4192 2432 4192 2304
WIRE 4192 2432 4048 2432
WIRE 2928 2656 2928 1808
WIRE 4496 2656 4496 1808
WIRE 4496 2656 2928 2656
FLAG 1280 592 0
FLAG 1200 448 V+
FLAG 1200 736 V-
FLAG 2640 1088 0
FLAG 2288 1040 0
FLAG 2288 1264 0
FLAG 4112 368 V-
FLAG 3248 1040 DiffAmp_Out
FLAG 3856 416 Error_Sum
FLAG 3968 256 0
FLAG 4112 256 V+
FLAG 2896 1088 V-
FLAG 2896 976 V+
FLAG 4688 432 0
FLAG 5168 368 0
FLAG 5360 352 0
FLAG 1920 1104 0
FLAG 1920 1344 0
FLAG 3584 1040 V_FB
FLAG 3728 2192 0
FLAG 3424 2144 0
FLAG 3424 2368 0
FLAG 4032 2192 V-
FLAG 4032 2080 V+
FLAG 3136 2368 0
FLAG 3888 2160 Diff_FB1
FLAG 3776 2304 Diff_FB2
SYMBOL voltage 1200 464 R0
WINDOW 123 0 0 Left 0
WINDOW 39 0 0 Left 0
SYMATTR InstName V1
SYMATTR Value 12
SYMBOL voltage 1200 608 R0
WINDOW 123 0 0 Left 0
WINDOW 39 0 0 Left 0
SYMATTR InstName V2
SYMATTR Value 12
SYMBOL AutoGenerated\\TLV172 2880 1040 R0
WINDOW 3 -32 79 Top 2
SYMATTR InstName U1
SYMBOL res 2624 992 R0
SYMATTR InstName R1
SYMATTR Value 10k
SYMBOL res 2560 960 R90
WINDOW 0 0 56 VBottom 2
WINDOW 3 32 56 VTop 2
SYMATTR InstName R2
SYMATTR Value 100k
SYMBOL res 2560 1184 R90
WINDOW 0 0 56 VBottom 2
WINDOW 3 32 56 VTop 2
SYMATTR InstName R3
SYMATTR Value 100k
SYMBOL res 2928 1184 R90
WINDOW 0 0 56 VBottom 2
WINDOW 3 32 56 VTop 2
SYMATTR InstName R4
SYMATTR Value 10k
SYMBOL cap 2272 976 R0
SYMATTR InstName C1
SYMATTR Value 1n
SYMBOL cap 2272 1200 R0
SYMATTR InstName C2
SYMATTR Value 1n
SYMBOL res 2176 960 R90
WINDOW 0 0 56 VBottom 2
WINDOW 3 32 56 VTop 2
SYMATTR InstName R5
SYMATTR Value 10k
SYMBOL res 2176 1184 R90
WINDOW 0 0 56 VBottom 2
WINDOW 3 32 56 VTop 2
SYMATTR InstName R6
SYMATTR Value 10k
SYMBOL AutoGenerated\\TLV172 4096 320 R0
WINDOW 3 -35 76 Top 2
SYMATTR InstName U3
SYMBOL res 4160 480 R90
WINDOW 0 0 56 VBottom 2
WINDOW 3 32 56 VTop 2
SYMATTR InstName R12
SYMATTR Value 30k
SYMBOL cap 4272 480 R90
WINDOW 0 0 32 VBottom 2
WINDOW 3 32 32 VTop 2
SYMATTR InstName C6
SYMATTR Value 1n
SYMBOL e 4688 288 R0
SYMATTR InstName E1
SYMATTR Value 8.3
SYMBOL tline 5168 288 R0
SYMATTR InstName T1
SYMATTR Value Td=2.25u Z0=50
SYMBOL res 5344 256 R0
SYMATTR InstName R13
SYMATTR Value 50
SYMBOL e 1920 976 R0
SYMATTR InstName E2
SYMATTR Value -1
SYMBOL e 1920 1216 R0
SYMATTR InstName E3
SYMATTR Value 1
SYMBOL voltage 3552 1040 R90
WINDOW 0 -32 56 VBottom 2
WINDOW 3 32 56 VTop 2
WINDOW 123 60 56 VTop 2
WINDOW 39 0 0 Left 0
SYMATTR InstName V3
SYMATTR Value ""
SYMATTR Value2 AC 0.1
SYMBOL res 3808 480 R90
WINDOW 0 0 56 VBottom 2
WINDOW 3 32 56 VTop 2
SYMATTR InstName R7
SYMATTR Value 10k
SYMBOL cap 2912 1312 R90
WINDOW 0 0 32 VBottom 2
WINDOW 3 32 32 VTop 2
SYMATTR InstName C3
SYMATTR Value 47p
SYMBOL AutoGenerated\\TLV172 4016 2144 R0
WINDOW 3 -32 79 Top 2
SYMATTR InstName U2
SYMBOL res 3712 2096 R0
SYMATTR InstName R8
SYMATTR Value 10k
SYMBOL res 3696 2064 R90
WINDOW 0 0 56 VBottom 2
WINDOW 3 32 56 VTop 2
SYMATTR InstName R9
SYMATTR Value 100k
SYMBOL res 3696 2288 R90
WINDOW 0 0 56 VBottom 2
WINDOW 3 32 56 VTop 2
SYMATTR InstName R10
SYMATTR Value 100k
SYMBOL res 4064 2288 R90
WINDOW 0 0 56 VBottom 2
WINDOW 3 32 56 VTop 2
SYMATTR InstName R11
SYMATTR Value 10k
SYMBOL cap 3408 2080 R0
SYMATTR InstName C4
SYMATTR Value 1n
SYMBOL cap 3408 2304 R0
SYMATTR InstName C5
SYMATTR Value 1n
SYMBOL res 3312 2064 R90
WINDOW 0 0 56 VBottom 2
WINDOW 3 32 56 VTop 2
SYMATTR InstName R14
SYMATTR Value 10k
SYMBOL res 3312 2288 R90
WINDOW 0 0 56 VBottom 2
WINDOW 3 32 56 VTop 2
SYMATTR InstName R15
SYMATTR Value 10k
SYMBOL cap 4048 2416 R90
WINDOW 0 0 32 VBottom 2
WINDOW 3 32 32 VTop 2
SYMATTR InstName C7
SYMATTR Value 47p
SYMBOL voltage 3840 2176 R0
WINDOW 123 24 124 Left 2
WINDOW 39 0 0 Left 0
SYMATTR Value2 AC 0.1
SYMATTR InstName V4
SYMATTR Value ""
TEXT 2616 896 Left 2 ;DiffAmp
TEXT 4024 120 Left 2 ;Error-Amp
TEXT 4568 520 Left 2 ;Sawtooth V p-p = ~5.8V
TEXT 4568 552 Left 2 ;Supply Power Bridges = 24V
TEXT 4568 584 Left 2 ;Gain = (24V/5.8V) * 2 = 8.3\n-> do be doubled because of H-Bridge configuration
TEXT 4872 120 Left 2 ;PWM delay = Delay Comparator + Delay PowerStage + (1/2)*(1/f_sw)\nPWM delay = 380ns + 200ns + 1.67us = 2.25 us
TEXT 2688 504 Left 2 !.ac oct 1000 1 10meg
